! Users should add all user specific namelist changes below in the form of 
! namelist_var = new_namelist_value 
 
use_topo_file      =  .true.   
analytic_ic_type='us_standard_atmosphere'
fv_nsplit = 16
fv_nspltrac = 4
fv_div24del2flag = 4
fv_nspltvrm = 2

nhtfrq = 0,0,0,-24
fincl1 = 'PS','T','Z3','U','V','OMEGA','PHIS','OMEGA500','OMEGA850','PSL','PHIS', 
         'TT_LW','TT_MD','TT_HI','TTRMD','TT_UN'
